<?xml version="1.0" encoding="UTF-8"?>
<template version="1.01" type="flows">
   <!-- ######################################################################################### -->
   <!-- Version 1.01                                                                              -->
   <!--  - Se eliminan los elementos que estén de VRM o que tengan asociada una acción sobre VRM  -->
   <!-- Eliminados: tst_npvr_ok, tst_npvr_ko, step_Kaltura_ko_npvr_ko,  -->
   <!-- Version 1.00                                                                              -->
   <!--  - Version de partida                                                                     -->
   <!-- ######################################################################################### -->
   <flows>
      <!-- DCO20220509 CORPORATE MOVIL (Butterfly) - INICIO -->
      <flow id="flow_estado_vpn">
         <resolution id="res_estado_vpn">
            <steps>
               <step id="step_comprueba_vpn_bloqueada" type="resolutionvalidation">
                  <resolutionvalidationreference id="res_comprobar_onenet_vpn_bloqueada" />
                  <navigation>
                     <ok finishresolution="true" />
                  </navigation>
               </step>
               <step id="step_vpn_bloqueada" type="automatedaction">
                  <requirement>
                     <expr type="and">
                        <reference id="tst_not_onenet_extension_bloqueada" type="test" role="one_net" />
                     </expr>
                  </requirement>
                  <stepactionreference id="act_update_by_msisdn" role="one_net" />
               </step>
               <step id="step_comprueba_vpn_bloqueada_final" type="resolutionvalidation">
                  <resolutionvalidationreference id="res_comprobar_onenet_vpn_bloqueada" />
                  <navigation>
                     <ok finishresolution="true" />
                  </navigation>
               </step>
            </steps>
         </resolution>
         <result>
            <expr type="and">
               <reference id="tst_not_onenet_vpn_bloqueada" type="test" role="one_net" />
            </expr>
         </result>
      </flow>
      <flow id="flow_estado_extension_vpn">
         <resolution id="res_estado_extension_vpn">
            <steps>
               <step id="step_comprueba_extension_bloqueada" type="resolutionvalidation">
                  <resolutionvalidationreference id="res_comprobar_onenet_extension_bloqueada" />
                  <navigation>
                     <ok finishresolution="true" />
                  </navigation>
               </step>
               <step id="step_extension_bloqueada" type="automatedaction">
                  <requirement>
                     <expr type="and">
                        <reference id="tst_onenet_extension_bloqueada" type="test" role="one_net" />
                     </expr>
                  </requirement>
                  <stepactionreference id="act_update_by_msisdn" role="one_net" />
               </step>
               <step id="step_imsi_distinto_onenet_clarify" type="automatedaction">
                  <requirement>
                     <expr type="and">
                        <reference id="tst_not_onenet_extension_bloqueada" type="test" role="one_net" />
                        <reference id="tst_not_imsi_clarify_onenet_ok" type="test" role="one_net" />
                     </expr>
                  </requirement>
                  <stepactionreference id="act_update_by_msisdn" role="one_net" />
               </step>
               <step id="step_comprueba_extension_bloqueada_final" type="resolutionvalidation">
                  <resolutionvalidationreference id="res_comprobar_onenet_extension_bloqueada" />
                  <navigation>
                     <ok finishresolution="true" />
                  </navigation>
               </step>
            </steps>
         </resolution>
         <result>
            <expr type="and">
               <reference id="tst_not_onenet_extension_bloqueada" type="test" role="one_net" />
               <reference id="tst_imsi_clarify_onenet_ok" type="test" role="one_net" />
               <reference id="tst_not_shortnumber_clarify_onenet_ko" type="test" role="one_net" />
            </expr>
         </result>
      </flow>
      <!-- DCO20221116 - Gaps Butterfly Fase 2 - Se elimina el flujo estado_hlr porque se desglosa en 2, el de voz y el de datos -->

      <!-- DCO20221116 - Gaps Butterfly Fase 2 - INICIO -->
      <flow id="flow_estado_hlr_voz">
         <resolution id="res_estado_hlr_voz">
            <steps>
               <step id="step_comprueba_hlr_voz_ok" type="resolutionvalidation">
                  <resolutionvalidationreference id="res_comprobar_hlr_voz_ok" />
                  <navigation>
                     <ok finishresolution="true" />
                  </navigation>
               </step>
               <step id="step_imsi_distinto_hlr_clarify" type="automatedaction">
                  <requirement>
                     <expr type="and">
                        <reference id="tst_hlr_provisionado" type="test" role="serpa"/>
                        <reference id="tst_imsi_clarify_hlr_ko" type="test" role="serpa"/>
                     </expr>
                  </requirement>
                  <stepactionreference id="act_api_cambio_imsi" role="serpa" />
               </step>
               <step id="step_cat_distinto_hlr_clarify" type="automatedaction">
                  <requirement>
                     <expr type="and">
                        <reference id="tst_hlr_provisionado" type="test" role="serpa"/>
                        <reference id="tst_imsi_clarify_hlr_ok" type="test" role="serpa"/>
                        <reference id="tst_hlr_cat_ko" type="test" role="serpa"/>
                     </expr>
                  </requirement>
                  <stepactionreference id="act_corregir_cat" role="serpa" />
               </step>
               <step id="step_restricciones_hlr_sin_restricciones_clarify_desactivar_restricciones" type="automatedaction">
                  <requirement>
                     <expr type="and">
                        <reference id="tst_not_msisdn_cabecera" type="test" role="front" />
                        <reference id="tst_hlr_provisionado" type="test" role="serpa"/>
                        <reference id="tst_imsi_clarify_hlr_ok" type="test" role="serpa"/>
                        <reference id="tst_hlr_cat_ok" type="test" role="serpa"/>
                        <reference id="tst_not_restricciones_voz" type="test" role="front"/> <!-- DCO20230508 - Movil Partis - Cambio de nombre -->
                        <expr type="or">
                            <reference id="tst_hlr_restricciones_voz" type="test" role="serpa"/>
                            <reference id="tst_hlr_ts11_ko" type="test" role="serpa"/>
                        </expr>
                     </expr>
                  </requirement>
                  <stepactionreference id="act_desactivar_hlr_restricciones_voz" role="serpa" />
               </step>
               <step id="step_cabecera_ts11_ko" type="automatedaction">
                  <requirement>
                     <expr type="and">
                        <reference id="tst_msisdn_cabecera" type="test" role="front" />
                        <reference id="tst_hlr_provisionado" type="test" role="serpa"/>
                        <reference id="tst_imsi_clarify_hlr_ok" type="test" role="serpa"/>
                        <reference id="tst_hlr_cat_ok" type="test" role="serpa"/>
                        <reference id="tst_hlr_ts11_ko" type="test" role="serpa"/>
                    </expr>
                  </requirement>
                  <stepactionreference id="act_activar_ts11" role="serpa" />
               </step>
               <step id="step_marcas_camel_incorrectas" type="automatedaction">
                  <requirement>
                     <expr type="and">
                        <reference id="tst_hlr_provisionado" type="test" role="serpa"/>
                        <reference id="tst_imsi_clarify_hlr_ok" type="test" role="serpa"/>
                        <reference id="tst_hlr_cat_ok" type="test" role="serpa"/>
                        <expr type="or">
                            <reference id="tst_camel_ko" type="test" role="serpa"/>
                            <reference id="tst_etick_ko" type="test" role="serpa"/>
                            <reference id="tst_eoick_ko" type="test" role="serpa"/>
                        </expr>
                     </expr>
                  </requirement>
                  <stepactionreference id="act_gestion_marcas_camel" role="serpa" />
               </step>
               <step id="step_restricciones_hlr_roaming_sin_restricciones_clarify_restricciones_voz" type="automatedaction">
                  <requirement>
                     <expr type="and">
                        <reference id="tst_servicio_voz_estado_ok" type="test" role="front"/>
                        <reference id="tst_not_msisdn_cabecera" type="test" role="front" />
                        <reference id="tst_hlr_provisionado" type="test" role="serpa"/>
                        <reference id="tst_imsi_clarify_hlr_ok" type="test" role="serpa"/>
                        <reference id="tst_hlr_cat_ok" type="test" role="serpa"/>
                        <reference id="tst_not_restricciones_voz_roaming" type="test" role="front"/> <!-- DCO20230508 - Movil Partis - Cambio de nombre -->
                        <reference id="tst_hlr_en_roaming" type="test" role="serpa"/>
                        <reference id="tst_hlr_restricciones_roaming_voz" type="test" role="serpa"/>
                     </expr>
                  </requirement>
                  <stepactionreference id="act_desactivar_hlr_restricciones_roaming_voz" role="serpa" />
               </step>
               <step id="step_comprueba_hlr_voz_ok_final" type="resolutionvalidation">
                  <resolutionvalidationreference id="res_comprobar_hlr_voz_ok" />
                  <navigation>
                     <ok finishresolution="true" />
                  </navigation>
               </step>
            </steps>
         </resolution>
         <result>
            <expr type="or">
                <expr type="and">
                    <reference id="tst_servicio_voz_estado_ok" type="test" role="front"/>
                    <reference id="tst_hlr_provisionado" type="test" role="serpa"/>
                    <reference id="tst_imsi_clarify_hlr_ok" type="test" role="serpa"/>
                    <reference id="tst_hlr_cat_ok" type="test" role="serpa"/>
                    <reference id="tst_camel_ok" type="test" role="serpa"/>
                    <reference id="tst_etick_ok" type="test" role="serpa"/>
                    <reference id="tst_eoick_ok" type="test" role="serpa"/>
                    <expr type="or">
                       <expr type="and">
                          <reference id="tst_not_msisdn_cabecera" type="test" role="front" />
                          <reference id="tst_hlr_vlr_ok" type="test" role="serpa"/>
                            <expr type="or">
                                <expr type="and">
                                    <reference id="tst_not_restricciones_voz" type="test" role="front"/> <!-- DCO20230508 - Movil Partis - Cambio de nombre -->
                                    <expr type="or">
                                        <reference id="tst_not_hlr_en_roaming" type="test" role="serpa"/>
                                        <reference id="tst_restricciones_voz_roaming" type="test" role="front"/> <!-- DCO20230508 - Movil Partis - Cambio de nombre -->
                                    </expr>
                                    <reference id="tst_not_hlr_restricciones_voz" type="test" role="serpa"/>
                                    <reference id="tst_hlr_ts11_ok" type="test" role="serpa"/>
                                </expr>
                                <expr type="and">
                                    <reference id="tst_not_restricciones_voz_roaming" type="test" role="front"/> <!-- DCO20230508 - Movil Partis - Cambio de nombre -->
                                    <reference id="tst_hlr_en_roaming" type="test" role="serpa"/>
                                    <reference id="tst_restricciones_voz" type="test" role="front"/> <!-- DCO20230508 - Movil Partis - Cambio de nombre -->
                                    <reference id="tst_not_hlr_restricciones_roaming_voz" type="test" role="serpa"/>
                                </expr>
                                <expr type="and">
                                    <reference id="tst_not_restricciones_voz" type="test" role="front"/> <!-- DCO20230508 - Movil Partis - Cambio de nombre -->
                                    <reference id="tst_not_restricciones_voz_roaming" type="test" role="front"/> <!-- DCO20230508 - Movil Partis - Cambio de nombre -->
                                    <reference id="tst_hlr_en_roaming" type="test" role="serpa"/>
                                    <reference id="tst_not_hlr_restricciones_roaming_voz" type="test" role="serpa"/>
                                    <reference id="tst_not_hlr_restricciones_voz" type="test" role="serpa"/>
                                    <reference id="tst_hlr_ts11_ok" type="test" role="serpa"/>
                                </expr>
                            </expr>
                        </expr>
                        <expr type="and">
                            <reference id="tst_msisdn_cabecera" type="test" role="front" />
                            <reference id="tst_hlr_ts11_ok" type="test" role="serpa"/>
                        </expr>
                    </expr>
                </expr>
                <reference id="tst_not_servicio_voz_estado_ok" type="test" role="front"/>
            </expr>
        </result>
      </flow>

      <flow id="flow_estado_hlr_datos">
         <resolution id="res_estado_hlr_datos">
            <steps>
               <step id="step_comprueba_hlr_datos_ok" type="resolutionvalidation">
                  <resolutionvalidationreference id="res_comprobar_hlr_datos_ok" />
                  <navigation>
                     <ok finishresolution="true" />
                  </navigation>
               </step>
               <step id="step_imsi_distinto_hlr_clarify" type="automatedaction">
                  <requirement>
                     <expr type="and">
                        <reference id="tst_hlr_provisionado" type="test" role="serpa"/>
                        <reference id="tst_imsi_clarify_hlr_ko" type="test" role="serpa"/>
                     </expr>
                  </requirement>
                  <stepactionreference id="act_api_cambio_imsi" role="serpa" />
               </step>
               <step id="step_cat_distinto_hlr_clarify" type="automatedaction">
                  <requirement>
                     <expr type="and">
                        <reference id="tst_hlr_provisionado" type="test" role="serpa"/>
                        <reference id="tst_imsi_clarify_hlr_ok" type="test" role="serpa"/>
                        <reference id="tst_hlr_cat_ko" type="test" role="serpa"/>
                     </expr>
                  </requirement>
                  <stepactionreference id="act_corregir_cat" role="serpa" />
               </step>
               <step id="step_nam_sin_restricciones_clarify" type="automatedaction">
                  <requirement>
                     <expr type="and">
                        <reference id="tst_hlr_provisionado" type="test" role="serpa"/>
                        <reference id="tst_imsi_clarify_hlr_ok" type="test" role="serpa"/>
                        <reference id="tst_hlr_cat_ok" type="test" role="serpa"/>
                        <reference id="tst_not_restricciones_datos" type="test" role="front"/> <!-- DCO20230508 - Movil Partis - Cambio de nombre -->
                        <reference id="tst_nam_1_ko" type="test" role="serpa"/>
                    </expr>
                  </requirement>
                  <stepactionreference id="act_corregir_nam" role="serpa" />
               </step>
               <step id="step_apn_incorrectos" type="automatedaction">
                  <requirement>
                     <expr type="and">
                        <reference id="tst_hlr_provisionado" type="test" role="serpa"/>
                        <reference id="tst_imsi_clarify_hlr_ok" type="test" role="serpa"/>
                        <reference id="tst_hlr_cat_ok" type="test" role="serpa"/>
                        <reference id="tst_nam_1_ok" type="test" role="serpa"/>
                        <reference id="tst_not_flag_basica_apn" type="test" role="front"/>
                        <expr type="or">
                           <reference type="test" id="tst_hlr_apnid_ko" role="serpa"/>
                           <reference type="test" id="tst_hlr_pdpcp_ko" role="serpa"/>
                           <reference type="test" id="tst_lte_apn4g_ko" role="serpa"/> 
                        </expr>
                     </expr>
                  </requirement>
                  <stepactionreference id="act_gestion_apn" role="serpa" />
               </step>
               <step id="step_restricciones_hlr_roaming_sin_restricciones_clarify_restricciones_datos" type="automatedaction">
                  <requirement>
                     <expr type="and">
                        <reference id="tst_hlr_provisionado" type="test" role="serpa"/>
                        <reference id="tst_imsi_clarify_hlr_ok" type="test" role="serpa"/>
                        <reference id="tst_hlr_cat_ok" type="test" role="serpa"/>
                        <reference id="tst_not_restricciones_datos_roaming" type="test" role="front"/> <!-- DCO20230508 - Movil Partis - Cambio de nombre -->
                        <reference id="tst_hlr_en_roaming" type="test" role="serpa"/>
                        <reference id="tst_hlr_restricciones_roaming_datos" type="test" role="serpa"/>
                    </expr>
                  </requirement>
                  <stepactionreference id="act_desactivar_hlr_restricciones_roaming_datos" role="serpa" />
               </step>
               <step id="step_comprueba_hlr_datos_ok_final" type="resolutionvalidation">
                  <resolutionvalidationreference id="res_comprobar_hlr_datos_ok" />
                  <navigation>
                     <ok finishresolution="true" />
                  </navigation>
               </step>
            </steps>
         </resolution>
         <result>
            <expr type="or">
               <expr type="and">
                  <reference id="tst_servicio_datos_estado_ok" type="test" role="front"/>
                  <reference id="tst_hlr_provisionado" type="test" role="serpa"/>
                  <reference id="tst_imsi_clarify_hlr_ok" type="test" role="serpa"/>
                  <reference id="tst_hlr_cat_ok" type="test" role="serpa"/>
                  <reference id="tst_hlr_sgsn_number_ok" type="test" role="serpa"/>
                  <expr type="or">
                     <expr type="and">
                           <reference id="tst_not_restricciones_datos" type="test" role="front"/> <!-- DCO20230508 - Movil Partis - Cambio de nombre -->
                           <expr type="or">
                              <reference id="tst_restricciones_datos_roaming" type="test" role="front"/> <!-- DCO20230508 - Movil Partis - Cambio de nombre -->
                              <reference id="tst_not_hlr_en_roaming" type="test" role="serpa"/>
                           </expr>
                           <reference id="tst_nam_1_ok" type="test" role="serpa"/>
                           <expr type="or">
                              <expr type="and">
                                 <expr type="or">
                                       <reference type="test" id="tst_hlr_pdpcp_ok" role="serpa"/>
                                       <reference type="test" id="tst_hlr_apnid_ok" role="serpa"/>
                                 </expr>
                                 <reference type="test" id="tst_lte_apn4g_ok" role="serpa"/>
                              </expr>
                              <reference type="test" id="tst_flag_basica_apn" role="front"/>
                           </expr>
                     </expr>
                     <expr type="and">
                           <reference id="tst_restricciones_datos" type="test" role="front"/> <!-- DCO20230508 - Movil Partis - Cambio de nombre -->
                           <reference id="tst_not_restricciones_datos_roaming" type="test" role="front"/> <!-- DCO20230508 - Movil Partis - Cambio de nombre -->
                           <reference id="tst_hlr_en_roaming" type="test" role="serpa"/>
                           <reference id="tst_not_hlr_restricciones_roaming_datos" type="test" role="serpa"/>
                     </expr>
                     <expr type="and">
                           <reference id="tst_not_restricciones_datos" type="test" role="front"/> <!-- DCO20230508 - Movil Partis - Cambio de nombre -->
                           <reference id="tst_not_restricciones_datos_roaming" type="test" role="front"/> <!-- DCO20230508 - Movil Partis - Cambio de nombre -->
                           <reference id="tst_hlr_en_roaming" type="test" role="serpa"/>
                           <reference id="tst_nam_1_ok" type="test" role="serpa"/>
                           <expr type="or">
                              <expr type="and">
                                 <expr type="or">
                                       <reference type="test" id="tst_hlr_pdpcp_ok" role="serpa"/>
                                       <reference type="test" id="tst_hlr_apnid_ok" role="serpa"/>
                                 </expr>
                                 <reference type="test" id="tst_lte_apn4g_ok" role="serpa"/>
                              </expr>
                              <reference type="test" id="tst_flag_basica_apn" role="front"/>
                           </expr>
                           <reference id="tst_not_hlr_restricciones_roaming_datos" type="test" role="serpa"/>
                     </expr>
                  </expr>
               </expr>
               <reference id="tst_not_servicio_datos_estado_ok" type="test" role="front"/>
               <reference id="tst_msisdn_cabecera" type="test" role="front"/>
            </expr>
         </result>
      </flow>
      <!-- DCO20221116 - Gaps Butterfly Fase 2 - FIN -->

      <flow id="flow_estado_lte">
         <resolution id="res_estado_lte">
            <steps>
               <step id="step_comprueba_lte_ok" type="resolutionvalidation">
                  <resolutionvalidationreference id="res_comprobar_lte_ok" />
                  <navigation>
                     <ok finishresolution="true" />
                  </navigation>
               </step>
               <step id="step_lte_no_prov" type="automatedaction">
                  <requirement>
                     <expr type="and">
                        <reference id="tst_not_msisdn_cabecera" type="test" role="front" /> <!-- DCO20221229 - SPBUT3 -->
                        <expr type="or">
                           <reference id="tst_servicio_datos_estado_ok" type="test" role="front" />
                           <reference id="tst_volte" type="test" role="front" />
                        </expr>
                        <reference id="tst_lte_provisionado_ko" type="test" role="serpa" />
                     </expr>
                  </requirement>
                  <stepactionreference id="act_gestion_pglte" role="serpa" />
               </step>
               <step id="step_datos_bloqueados_epsodb_all" type="automatedaction">
                  <requirement>
                     <expr type="and">
                        <reference id="tst_not_msisdn_cabecera" type="test" role="front" /> <!-- DCO20221229 - SPBUT3 -->
                        <reference id="tst_lte_provisionado_ok" type="test" role="serpa" />
                        <reference id="tst_lte_epsodb_all" type="test" role="serpa" />
                     </expr>
                  </requirement>
                  <stepactionreference id="act_gestion_odb" role="serpa" />
               </step>
               <step id="step_apns4g_mal_prov" type="automatedaction">
                  <requirement>
                     <expr type="and">
                        <reference id="tst_not_msisdn_cabecera" type="test" role="front" /> <!-- DCO20221229 - SPBUT3 -->
                        <reference id="tst_lte_provisionado_ok" type="test" role="serpa" />
                        <reference id="tst_lte_epslocationstate_ok" type="test" role="serpa" />
                        <reference id="tst_not_lte_epsodb_all" type="test" role="serpa" />
                        <reference id="tst_flag_basica_apn" type="test" role="front" />
                        <expr type="or">
                           <reference id="tst_lte_apn4g_ko" type="test" role="serpa" />
                           <reference id="tst_lte_ipfija_ko" type="test" role="serpa" />
                        </expr>
                     </expr>
                  </requirement>
                  <stepactionreference id="act_gestion_apn" role="serpa" />
               </step>
               <step id="step_comprueba_lte_ok_final" type="resolutionvalidation">
                  <resolutionvalidationreference id="res_comprobar_lte_ok" />
                  <navigation>
                     <ok finishresolution="true" />
                  </navigation>
               </step>
               <!-- DEF20231213 - Migracion V18 - INICIO -->
               <step id="step_default_flow_finalizado" type="automatedaction">
                  <stepactionreference id="act_default_flow_finalizado" role="front"/>
               </step>
               <!-- DEF20231213 - Migracion V18 - FIN -->
            </steps>
         </resolution>
         <result>
            <expr type="or">
               <expr type="and">
                  <reference id="tst_not_msisdn_cabecera" type="test" role="front" /> <!-- DCO20221229 - SPBUT3 -->
                  <reference id="tst_lte_provisionado_ok" type="test" role="serpa" />
                  <reference id="tst_lte_epslocationstate_ok" type="test" role="serpa" />
                  <reference id="tst_not_lte_epsodb_all" type="test" role="serpa" />
                  <reference id="tst_lte_apn4g_ok" type="test" role="serpa" />
               </expr>
               <expr type="and">
                  <reference id="tst_not_servicio_datos_estado_ok" type="test" role="front" />
                  <reference id="tst_not_volte" type="test" role="front" />
               </expr>
               <reference id="tst_msisdn_cabecera" type="test" role="front" /> <!-- DCO20221229 - SPBUT3 -->
            </expr>
         </result>
      </flow>
      <flow id="flow_estado_esm">
         <resolution id="res_estado_esm">
            <steps>
               <step id="step_comprueba_estado_esm_ok" type="resolutionvalidation">
                  <resolutionvalidationreference id="res_comprobar_estado_esm" />
                  <navigation>
                     <ok finishresolution="true" />
                  </navigation>
               </step>
               <step id="step_lte_no_prov" type="automatedaction">
                  <requirement>
                     <expr type="and">
                        <reference type="test" id="tst_volte" role="front" />
                        <!--<reference type="test" id="tst_nam_1_ok" role="serpa"/>CCA20231106 - SP3209-->
                        <reference id="tst_lte_provisionado_ok" type="test" role="serpa" />
                        <reference id="tst_not_restricciones_datos" type="test" role="front"/> <!-- DCO20230508 - Movil Partis - Cambio de nombre -->
                        <reference id="tst_lte_epsodb_all" type="test" role="serpa" />
                        <reference type="test" id="tst_plan_precios_datos_eq_tdthz" role="front" inverse="true"/><!--CCA20231106 - SP3209-->
                     </expr>
                  </requirement>
                  <stepactionreference id="act_gestion_odb" role="serpa" />
               </step>
               <!-- CAD20231128 - Diagnosticos VoLTE - VBTS_Schaman_015 - INICIO -->
               <step id="step_corregir_provision_esm" type="automatedaction">
                  <requirement>
                     <expr type="and">
                        <reference type="test" id="tst_volte" role="front" />
                        <reference id="tst_lte_provisionado_ko" type="test" role="serpa" />
                     </expr>
                  </requirement>
                  <stepactionreference id="act_corregir_provision_esm" role="serpa" />
               </step>
               <!-- CAD20231128 - Diagnosticos VoLTE - VBTS_Schaman_015 - FIN -->
               <step id="step_comprueba_estado_esm_ok_final" type="resolutionvalidation">
                  <resolutionvalidationreference id="res_comprobar_estado_esm" />
                  <navigation>
                     <ok finishresolution="true" />
                  </navigation>
               </step>
               <!-- DEF20231213 - Migracion V18 - INICIO -->
               <step id="step_default_flow_finalizado" type="automatedaction">
                  <stepactionreference id="act_default_flow_finalizado" role="front"/>
               </step>
               <!-- DEF20231213 - Migracion V18 - FIN -->
            </steps>
         </resolution>
         <result>
            <expr type="or">
               <expr type="and">